Version 4
SHEET 1 1520 1144
WIRE 544 -224 208 -224
WIRE 720 -224 656 -224
WIRE 832 -224 720 -224
WIRE 1040 -224 832 -224
WIRE 1168 -224 1120 -224
WIRE 832 -16 832 -32
WIRE 48 16 -128 16
WIRE 208 16 208 -224
WIRE 208 16 48 16
WIRE 208 112 208 80
WIRE 368 112 208 112
WIRE 416 112 368 112
WIRE 544 112 416 112
WIRE 688 112 656 112
WIRE 832 112 688 112
WIRE 1040 112 832 112
WIRE 1168 112 1120 112
WIRE -128 128 -128 96
WIRE 368 128 368 112
WIRE 208 192 208 112
WIRE 240 256 208 256
WIRE 368 256 368 208
WIRE 368 256 320 256
WIRE 368 304 368 256
WIRE 832 320 832 304
FLAG 368 304 0
FLAG -128 128 0
FLAG 48 16 Vin
FLAG 416 112 Vprebuf
FLAG 688 112 Vtrigpreout
FLAG 720 -224 Vgatepreout
FLAG 832 384 0
FLAG 1168 112 Vtrig
FLAG 832 48 0
FLAG 1168 -224 Vgate
SYMBOL diode 224 256 R180
WINDOW 0 24 64 Left 2
WINDOW 3 24 0 Left 2
SYMATTR InstName D1
SYMATTR Value 1N4148
SYMBOL res 336 240 R90
WINDOW 0 0 56 VBottom 2
WINDOW 3 32 56 VTop 2
SYMATTR InstName R1
SYMATTR Value 1K
SYMBOL res 384 224 R180
WINDOW 0 36 76 Left 2
WINDOW 3 36 40 Left 2
SYMATTR InstName R2
SYMATTR Value 1Meg
SYMBOL cap 192 16 R0
SYMATTR InstName C1
SYMATTR Value 33n
SYMBOL voltage -128 0 R0
WINDOW 123 0 0 Left 0
WINDOW 39 0 0 Left 0
WINDOW 3 -459 180 Left 2
SYMATTR Value PULSE(0 5 0 0.000000001 0.000000001 2 4)
SYMATTR InstName V1
SYMBOL CD4000\\CD4050B 592 48 R0
SYMATTR InstName U1
SYMBOL CD4000\\CD4050B 592 -288 R0
SYMATTR InstName U2
SYMBOL LED 816 320 R0
WINDOW 3 39 76 Left 2
SYMATTR Value NSPW500BS
SYMATTR InstName D2
SYMATTR Description Diode
SYMATTR Type diode
SYMBOL res 816 208 R0
SYMATTR InstName R3
SYMATTR Value 330
SYMBOL res 1136 96 R90
WINDOW 0 0 56 VBottom 2
WINDOW 3 32 56 VTop 2
SYMATTR InstName R4
SYMATTR Value 1K
SYMBOL CD4000\\CD4050B 896 160 R90
SYMATTR InstName U4
SYMBOL LED 816 -16 R0
WINDOW 3 39 76 Left 2
SYMATTR Value NSPW500BS
SYMATTR InstName D3
SYMATTR Description Diode
SYMATTR Type diode
SYMBOL res 816 -128 R0
SYMATTR InstName R5
SYMATTR Value 330
SYMBOL res 1136 -240 R90
WINDOW 0 0 56 VBottom 2
WINDOW 3 32 56 VTop 2
SYMATTR InstName R6
SYMATTR Value 1K
SYMBOL CD4000\\CD4050B 896 -176 R90
SYMATTR InstName U5
TEXT -160 328 Left 2 !.tran 0 10 0 0.0001
TEXT 528 184 Left 2 !.lib cd4000.lib
