Version 4
SHEET 1 2432 680
WIRE 432 -352 352 -352
WIRE 432 -320 432 -352
WIRE 352 -192 352 -272
WIRE 352 -112 64 -112
WIRE 352 -96 352 -112
WIRE 352 16 352 -16
WIRE 224 80 224 48
WIRE 144 112 144 48
WIRE 64 128 64 -112
WIRE 112 128 64 128
WIRE 240 144 176 144
WIRE 352 144 352 96
WIRE 352 144 320 144
WIRE 480 144 352 144
WIRE 528 144 480 144
WIRE -48 160 -144 160
WIRE 112 160 -48 160
WIRE 144 208 144 176
WIRE -144 272 -144 240
WIRE 144 304 144 288
WIRE 864 352 864 320
WIRE 784 368 784 320
WIRE 480 384 480 144
WIRE 752 384 480 384
WIRE 896 400 816 400
WIRE 944 400 896 400
WIRE 1056 400 1024 400
WIRE 1152 400 1120 400
WIRE 752 416 720 416
WIRE 1152 432 1152 400
WIRE 784 464 784 432
WIRE 784 560 784 544
WIRE 720 592 720 416
WIRE 896 592 896 400
WIRE 896 592 720 592
FLAG 144 304 0
FLAG -144 272 0
FLAG 224 80 0
FLAG 432 -320 0
FLAG -48 160 Vin
FLAG 528 144 Vout
FLAG 864 352 0
FLAG 784 560 0
FLAG 1152 432 0
SYMBOL Opamps\\opamp2 144 80 R0
SYMATTR InstName U1
SYMATTR Value TL07X
SYMBOL voltage -144 144 R0
WINDOW 3 24 44 Left 2
WINDOW 123 0 0 Left 0
WINDOW 39 0 0 Left 0
SYMATTR Value SINE(2.048 2.048 10 0)
SYMATTR InstName V1
SYMBOL voltage 128 48 R270
WINDOW 0 24 96 Left 2
WINDOW 3 24 16 Left 2
WINDOW 123 0 0 Left 0
WINDOW 39 0 0 Left 0
SYMATTR InstName V2
SYMATTR Value {VPos}
SYMBOL voltage 144 192 R0
WINDOW 0 24 96 Left 2
WINDOW 3 24 16 Left 2
WINDOW 123 0 0 Left 0
WINDOW 39 0 0 Left 0
SYMATTR InstName V3
SYMATTR Value {VNeg}
SYMBOL res 336 128 R90
WINDOW 0 0 56 VBottom 2
WINDOW 3 32 56 VTop 2
SYMATTR InstName R1
SYMATTR Value 1K
SYMBOL res 336 0 R0
SYMATTR InstName R2
SYMATTR Value 100K
SYMBOL res 368 -256 R180
WINDOW 0 36 76 Left 2
WINDOW 3 36 40 Left 2
SYMATTR InstName R5
SYMATTR Value 105K
SYMBOL res 336 -112 R0
SYMATTR InstName POT1B
SYMATTR Value {Pot1b}
SYMBOL res 336 -208 R0
SYMATTR InstName POT1A
SYMATTR Value {Pot1a}
SYMBOL Opamps\\opamp2 784 464 M180
SYMATTR InstName U2
SYMATTR Value TL07X
SYMBOL voltage 768 320 R270
WINDOW 0 24 96 Left 2
WINDOW 3 24 16 Left 2
WINDOW 123 0 0 Left 0
WINDOW 39 0 0 Left 0
SYMATTR InstName V4
SYMATTR Value {VNeg}
SYMBOL voltage 784 448 R0
WINDOW 0 24 96 Left 2
WINDOW 3 24 16 Left 2
WINDOW 123 0 0 Left 0
WINDOW 39 0 0 Left 0
SYMATTR InstName V5
SYMATTR Value {VPos}
SYMBOL LED 1056 416 R270
WINDOW 0 32 32 VTop 2
WINDOW 3 0 32 VBottom 2
SYMATTR InstName D1
SYMATTR Value NSPW500BS
SYMATTR Description Diode
SYMATTR Type diode
SYMBOL res 1040 384 R90
WINDOW 0 0 56 VBottom 2
WINDOW 3 32 56 VTop 2
SYMATTR InstName R3
SYMATTR Value 1k
TEXT 0 352 Left 2 !.lib Opamps_Comparators_ST.lib
TEXT 456 -144 Left 2 !.param Pot1R=10K Pot1Val=50
TEXT 456 -104 Left 2 !.param Pot1a=Pot1R * (1 - (Pot1Val / 100) + 0.0000001) Pot1b=Pot1R *( (Pot1Val / 100) + 0.0000001)
TEXT -176 376 Left 2 !.tran 0 0.5 0 0.0001
TEXT 960 -256 Left 2 !.param VPos=12 VNeg=-VPos
TEXT 1256 248 Left 2 ;.step param Pot1Val 0 100 20
TEXT 1192 88 Left 2 ;This circuit boosts 4.096V from the DAC to 8V.
TEXT 872 128 Left 2 ;This allows 1200*(8/4096) = 2.34 Cents of resolution when using the DAC's 4.096V Output for a range of 8 Octaves\nThis allows 1200*(4/4096) = 1.17 Cents of resolution when using the DAC's 2.048V Output for a range of 4 Octaves
TEXT 1160 200 Left 2 ;Using the trimpot the voltage can be adjusted from aprox 7.65V to 8.35V with 4.096V input
TEXT 1096 280 Left 2 ;This LED Circuit is non optimal due to the forward voltage of the LED however its what is easily implementable and\nit is just as a visual thing it doesnt need to be perfect
