Version 4
SHEET 1 880 680
WIRE -32 160 -112 160
WIRE -16 160 -32 160
WIRE 144 160 96 160
WIRE 224 160 144 160
WIRE 448 160 336 160
WIRE 640 160 528 160
WIRE 144 240 144 160
WIRE 144 432 144 384
FLAG -112 240 0
FLAG 144 432 0
FLAG 144 160 VMCU
FLAG 640 160 VOut
FLAG -32 160 Vin
SYMBOL CD4000\\CD4050B 272 96 R0
SYMATTR InstName U1
SYMBOL voltage -112 144 R0
WINDOW 3 -74 -261 VRight 2
WINDOW 123 0 0 Left 0
WINDOW 39 0 0 Left 0
SYMATTR Value PULSE(0 5 0 0.00000001 0.00000001 1 2)
SYMATTR InstName V1
SYMBOL res 544 144 R90
WINDOW 0 0 56 VBottom 2
WINDOW 3 32 56 VTop 2
SYMATTR InstName R1
SYMATTR Value 1K
SYMBOL res 160 336 R180
WINDOW 0 36 76 Left 2
WINDOW 3 36 40 Left 2
SYMATTR InstName R2
SYMATTR Value 330
SYMBOL LED 128 320 R0
SYMATTR InstName D1
SYMATTR Value NSPW500BS
SYMATTR Description Diode
SYMATTR Type diode
SYMBOL CD4000\\CD4050B 32 96 R0
SYMATTR InstName U2
TEXT 200 224 Left 2 !.lib cd4000.lib
TEXT -296 480 Left 2 !.tran 0 5 0 0.1
TEXT -104 64 Left 2 ;First Buffer to simulate MCU output
