Version 4
SHEET 1 880 680
WIRE 160 144 -32 144
WIRE 352 144 272 144
WIRE 432 144 352 144
WIRE 576 144 544 144
WIRE 704 144 656 144
WIRE 352 288 352 144
WIRE 448 288 352 288
WIRE 576 288 528 288
WIRE 704 288 640 288
WIRE 704 320 704 288
FLAG 704 320 0
FLAG 352 144 Vmcu
FLAG 704 144 Vout
FLAG -32 224 0
SYMBOL CD4000\\CD4050B 208 80 R0
SYMATTR InstName U1
SYMBOL voltage -32 128 R0
WINDOW 3 -263 147 Left 2
WINDOW 123 0 0 Left 0
WINDOW 39 0 0 Left 0
SYMATTR Value PULSE(0 5 0 0.00000001 0.00000001 0.5 1)
SYMATTR InstName V1
SYMBOL res 672 128 R90
WINDOW 0 0 56 VBottom 2
WINDOW 3 32 56 VTop 2
SYMATTR InstName R1
SYMATTR Value 1K
SYMBOL CD4000\\CD4050B 480 80 R0
SYMATTR InstName U2
SYMBOL res 544 272 R90
WINDOW 0 0 56 VBottom 2
WINDOW 3 32 56 VTop 2
SYMATTR InstName R2
SYMATTR Value 330
SYMBOL LED 576 304 R270
WINDOW 0 32 32 VTop 2
WINDOW 3 0 32 VBottom 2
SYMATTR InstName D1
SYMATTR Value NSPW500BS
SYMATTR Description Diode
SYMATTR Type diode
TEXT 72 40 Left 2 ;First Buffer to simulate MCU output
TEXT -64 344 Left 2 !.tran 0 2 0 0.01
TEXT 408 200 Left 2 !.lib cd4000.lib
