Version 4
SHEET 1 1292 680
WIRE 800 -16 720 -16
WIRE 800 16 800 -16
WIRE 720 96 720 64
WIRE -32 112 -128 112
WIRE 144 112 80 112
WIRE 192 112 144 112
WIRE 256 112 192 112
WIRE 464 112 336 112
WIRE 688 112 544 112
WIRE 848 128 752 128
WIRE 960 128 928 128
WIRE 1072 128 960 128
WIRE 688 144 656 144
WIRE 336 160 336 112
WIRE 544 160 544 112
WIRE 720 192 720 160
WIRE 192 208 192 112
WIRE 432 224 336 224
WIRE 544 224 432 224
WIRE 432 240 432 224
WIRE 656 304 656 144
WIRE 960 304 960 128
WIRE 960 304 656 304
WIRE 192 352 192 320
WIRE 192 464 192 432
WIRE 192 560 192 528
FLAG -128 192 0
FLAG 432 240 0
FLAG 720 272 0
FLAG 800 16 0
FLAG 144 112 Vmcu
FLAG 1072 128 Vout
FLAG 192 560 0
SYMBOL voltage -128 96 R0
WINDOW 3 -62 -277 VRight 2
WINDOW 123 0 0 Left 0
WINDOW 39 0 0 Left 0
SYMATTR InstName V1
SYMATTR Value PULSE(0 5 0 0.00000001 0.00000001 0.000016 0.000016)
SYMBOL res 352 96 R90
WINDOW 0 0 56 VBottom 2
WINDOW 3 32 56 VTop 2
SYMATTR InstName R1
SYMATTR Value 22K
SYMBOL res 560 96 R90
WINDOW 0 0 56 VBottom 2
WINDOW 3 32 56 VTop 2
SYMATTR InstName R2
SYMATTR Value 22K
SYMBOL cap 320 160 R0
SYMATTR InstName C1
SYMATTR Value 10n
SYMBOL cap 528 160 R0
SYMATTR InstName C2
SYMATTR Value 10n
SYMBOL Opamps\\opamp2 720 192 M180
SYMATTR InstName U1
SYMATTR Value TL07X
SYMBOL res 944 112 R90
WINDOW 0 0 56 VBottom 2
WINDOW 3 32 56 VTop 2
SYMATTR InstName R3
SYMATTR Value 1K
SYMBOL voltage 720 80 R180
WINDOW 0 24 96 Left 2
WINDOW 3 24 16 Left 2
WINDOW 123 0 0 Left 0
WINDOW 39 0 0 Left 0
SYMATTR InstName V2
SYMATTR Value {VNeg}
SYMBOL voltage 720 176 R0
WINDOW 0 24 96 Left 2
WINDOW 3 24 16 Left 2
WINDOW 123 0 0 Left 0
WINDOW 39 0 0 Left 0
SYMATTR InstName V3
SYMATTR Value {VPos}
SYMBOL CD4000\\CD4050B 16 48 R0
SYMATTR InstName U2
SYMBOL res 176 336 R0
SYMATTR InstName R4
SYMATTR Value 220
SYMBOL LED 176 464 R0
SYMATTR InstName D1
SYMATTR Value NSPW500BS
SYMATTR Description Diode
SYMATTR Type diode
SYMBOL CD4000\\CD4050B 256 256 R90
SYMATTR InstName U3
TEXT 648 368 Left 2 !.lib Opamps_Comparators_ST.lib
TEXT 944 -56 Left 2 !.param VPos=12 Vneg=-VPos
TEXT -622 182 Left 2 !.tran 0 0.01 0 0.0001
TEXT -48 160 Left 2 !.lib cd4000.lib
